Version 4
SHEET 1 1524 1432
WIRE 352 -48 288 -48
WIRE 448 -48 432 -48
WIRE 592 -48 528 -48
WIRE 0 -32 -112 -32
WIRE 448 16 448 -48
WIRE 496 16 448 16
WIRE -112 32 -112 -32
WIRE -96 32 -112 32
WIRE 592 32 592 -48
WIRE 592 32 560 32
WIRE 656 32 592 32
WIRE 0 48 -32 48
WIRE 112 48 0 48
WIRE 304 48 192 48
WIRE 352 48 304 48
WIRE 448 48 432 48
WIRE 496 48 448 48
WIRE -320 64 -368 64
WIRE -240 64 -256 64
WIRE -96 64 -240 64
WIRE 192 64 192 48
WIRE -112 96 -112 32
WIRE -368 224 -368 64
WIRE -368 224 -400 224
WIRE 304 272 304 48
WIRE 352 272 304 272
WIRE 448 272 432 272
WIRE 592 272 528 272
WIRE 0 288 -112 288
WIRE 448 336 448 272
WIRE 496 336 448 336
WIRE -112 352 -112 288
WIRE -96 352 -112 352
WIRE 592 352 592 272
WIRE 592 352 560 352
WIRE 656 352 592 352
WIRE 0 368 -32 368
WIRE 112 368 0 368
WIRE 288 368 288 -48
WIRE 288 368 192 368
WIRE 352 368 288 368
WIRE 448 368 432 368
WIRE 496 368 448 368
WIRE -368 384 -368 224
WIRE -304 384 -368 384
WIRE -96 384 -224 384
WIRE 192 384 192 368
WIRE -112 416 -112 352
WIRE -224 464 -224 448
FLAG -336 -144 0
FLAG -224 -144 0
FLAG -224 -224 V+
FLAG -240 144 0
FLAG -64 80 0
FLAG -112 176 0
FLAG -64 16 V+
FLAG -224 464 0
FLAG -64 400 0
FLAG -112 496 0
FLAG -64 336 V+
FLAG 192 128 0
FLAG 192 448 0
FLAG 528 64 0
FLAG 528 0 V+
FLAG 656 32 Voutf
FLAG 448 128 0
FLAG 528 384 0
FLAG 528 320 V+
FLAG 656 352 Voutb
FLAG 448 448 0
FLAG -336 -224 Vleft
FLAG -400 224 Vleft
SYMBOL voltage -224 -240 R0
WINDOW 123 0 0 Left 2
WINDOW 39 0 0 Left 2
SYMATTR InstName V2
SYMATTR Value 5
SYMBOL bv -336 -240 M0
SYMATTR InstName B1
SYMATTR Value V=0.45*sin(time*2*pi*(time*1000))*buf(-sin(time*50)+0.75)
SYMBOL res -256 48 R0
SYMATTR InstName R11
SYMATTR Value 80
SYMBOL Opamps\\opamp2 -64 -16 R0
SYMATTR InstName U4
SYMATTR Value LM324
SYMBOL res -16 -48 R0
SYMATTR InstName R13
SYMATTR Value 5k
SYMBOL res -128 80 R0
SYMATTR InstName R14
SYMATTR Value 10k
SYMBOL cap -256 48 R90
WINDOW 0 0 32 VBottom 2
WINDOW 3 32 32 VTop 2
SYMATTR InstName C8
SYMATTR Value 1µ
SYMBOL res -208 368 R90
WINDOW 0 0 56 VBottom 2
WINDOW 3 32 56 VTop 2
SYMATTR InstName R17
SYMATTR Value 80
SYMBOL Opamps\\opamp2 -64 304 R0
SYMATTR InstName U7
SYMATTR Value LM324
SYMBOL res -16 384 M180
WINDOW 0 36 76 Left 2
WINDOW 3 36 40 Left 2
SYMATTR InstName R18
SYMATTR Value 5k
SYMBOL cap -240 384 R0
SYMATTR InstName C9
SYMATTR Value 1µ
SYMBOL res 208 64 M270
WINDOW 0 32 56 VTop 2
WINDOW 3 0 56 VBottom 2
SYMATTR InstName R20
SYMATTR Value 100
SYMBOL cap 176 128 M180
WINDOW 0 24 56 Left 2
WINDOW 3 24 8 Left 2
SYMATTR InstName C10
SYMATTR Value 47µ
SYMBOL res 208 352 R90
WINDOW 0 0 56 VBottom 2
WINDOW 3 32 56 VTop 2
SYMATTR InstName R21
SYMATTR Value 100
SYMBOL cap 176 448 M180
WINDOW 0 24 56 Left 2
WINDOW 3 24 8 Left 2
SYMATTR InstName C11
SYMATTR Value 47µ
SYMBOL res -128 400 R0
SYMATTR InstName R5
SYMATTR Value 10k
SYMBOL Opamps\\opamp2 528 -32 R0
SYMATTR InstName U1
SYMATTR Value LM324
SYMBOL res 448 -64 R90
WINDOW 0 0 56 VBottom 2
WINDOW 3 32 56 VTop 2
SYMATTR InstName R9
SYMATTR Value 10
SYMBOL res 544 -64 R90
WINDOW 0 0 56 VBottom 2
WINDOW 3 32 56 VTop 2
SYMATTR InstName R10
SYMATTR Value 20k
SYMBOL res 432 32 R0
SYMATTR InstName R15
SYMATTR Value 10k
SYMBOL Opamps\\opamp2 528 288 R0
SYMATTR InstName U2
SYMATTR Value LM324
SYMBOL res 448 256 R90
WINDOW 0 0 56 VBottom 2
WINDOW 3 32 56 VTop 2
SYMATTR InstName R1
SYMATTR Value 10
SYMBOL res 544 256 R90
WINDOW 0 0 56 VBottom 2
WINDOW 3 32 56 VTop 2
SYMATTR InstName R2
SYMATTR Value 20k
SYMBOL res 448 352 R90
WINDOW 0 0 56 VBottom 2
WINDOW 3 32 56 VTop 2
SYMATTR InstName R3
SYMATTR Value 200
SYMBOL res 432 352 R0
SYMATTR InstName R4
SYMATTR Value 10k
SYMBOL res 448 32 R90
WINDOW 0 0 56 VBottom 2
WINDOW 3 32 56 VTop 2
SYMATTR InstName R6
SYMATTR Value 200
TEXT -1080 -272 Left 2 !.lib LM324.ti.lib
TEXT -1080 -232 Left 2 !.tran 0 2 0 0.001
TEXT -1096 -104 Left 2 ;V=0.35*sin(time*2*pi*(time*1000))
TEXT -1264 -72 Left 2 ;V=0.35*sin(time*2*pi*(time*1000))*buf(-sin(time*200)+0.75)
TEXT -328 176 Left 2 ;high-pass f.
TEXT -328 496 Left 2 ;low-pass f.
TEXT -136 208 Left 2 ;rect. amp.
TEXT -128 528 Left 2 ;rect. amp.
TEXT 104 160 Left 2 ;smoothing f.
TEXT 104 480 Left 2 ;smoothing f.
TEXT 352 160 Left 2 ;rect. diff. amp
TEXT 344 480 Left 2 ;rect. diff. amp
LINE Normal -336 512 -336 336 2
LINE Normal -176 512 -336 512 2
LINE Normal -176 336 -176 512 2
LINE Normal -336 336 -176 336 2
LINE Normal -336 192 -336 16 2
LINE Normal -176 192 -336 192 2
LINE Normal -176 16 -176 192 2
LINE Normal -336 16 -176 16 2
LINE Normal -144 224 -144 -48 2
LINE Normal 64 224 -144 224 2
LINE Normal 64 -48 64 224 2
LINE Normal -144 -48 64 -48 2
LINE Normal -144 544 -144 272 2
LINE Normal 64 544 -144 544 2
LINE Normal 64 272 64 544 2
LINE Normal -144 272 64 272 2
LINE Normal 96 176 96 0 2
LINE Normal 256 176 96 176 2
LINE Normal 256 0 256 176 2
LINE Normal 96 0 256 0 2
LINE Normal 96 496 96 320 2
LINE Normal 256 496 96 496 2
LINE Normal 256 320 256 496 2
LINE Normal 96 320 256 320 2
LINE Normal 336 176 336 -96 2
LINE Normal 624 176 336 176 2
LINE Normal 624 -96 624 176 2
LINE Normal 336 -96 624 -96 2
LINE Normal 336 496 336 224 2
LINE Normal 624 496 336 496 2
LINE Normal 624 224 624 496 2
LINE Normal 336 224 624 224 2
